21

O         -1.36522        0.56860        1.37807
H         -1.69735        1.31584        0.83630
H         -1.84253       -0.18026        0.96210
O         -2.09139        2.24326       -0.78654
H         -2.70791        2.98281       -0.94036
H         -2.57840        1.52216       -1.26716
O          0.51707        1.47847       -1.29140
H          1.05556        2.28472       -1.18522
H         -0.37249        1.82619       -1.02867
O          0.87146       -0.74191        0.48563
H          0.99360       -0.01584       -0.16121
H          0.32384       -0.26773        1.15277
O         -3.12152        0.09893       -2.00455
H         -3.16514       -0.68304       -1.41156
H         -2.39240       -0.19712       -2.59666
O         -1.59912       -1.69964       -0.41121
H         -1.17349       -1.52019       -1.28062
H         -0.78018       -1.86472        0.10878
O         -0.51864       -0.63060       -2.74355
H         -0.04330        0.12535       -2.31920
H          0.15694       -0.93530       -3.37725
